@<TRIPOS>MOLECULE
ZINC18847046
   29    31     0     0     0
SMALL
USER_CHARGES

@<TRIPOS>ATOM
      1 C1          0.0000    0.0000    0.0000
      2 C2          0.0000    0.0000    1.5071
      3 C3          0.0000    1.2066    2.1961
      4 C4         -0.0004    1.1762    3.6015
      5 C5         -0.0012   -0.0605    4.2460
      6 C6         -0.0014   -1.2068    3.4802
      7 N1         -0.0054   -1.1439    2.1603
      8 C7          0.0005    2.5765    4.0520
      9 C8          0.0011    3.1814    5.3081
     10 C9          0.0025    4.5540    5.4089
     11 C10         0.0029    5.3407    4.2606
     12 C11         0.0024    4.7527    3.0091
     13 C12         0.0014    3.3668    2.8912
     14 N2          0.0011    2.5283    1.7909
     15 H1          0.0018    2.8252    0.8674
     16 O1          0.0033    6.6950    4.3702
     17 C13         0.0034    7.2390    5.6916
     18 H2         -1.0277    0.0049   -0.3633
     19 H3          0.5180    0.8876   -0.3634
     20 H4          0.5096   -0.8924   -0.3633
     21 H5         -0.0011   -0.1190    5.3244
     22 H6         -0.0019   -2.1711    3.9665
     23 H7          0.0000    2.5736    6.2009
     24 H8          0.0029    5.0223    6.3821
     25 H9          0.0024    5.3698    2.1227
     26 H10        -0.8868    6.9025    6.2230
     27 H11         0.8931    6.9018    6.2233
     28 H12         0.0038    8.3276    5.6364
     29 H13        -0.0094   -1.9709    1.6534
@<TRIPOS>BOND
     1    1    2 1
     2    1   18 1
     3    1   19 1
     4    1   20 1
     5    2    7 ar
     6    2    3 ar
     7    3   14 1
     8    3    4 ar
     9    4    5 ar
    10    4    8 1
    11    5    6 ar
    12    5   21 1
    13    6    7 ar
    14    6   22 1
    15    7   29 1
    16    8   13 ar
    17    8    9 ar
    18    9   10 ar
    19    9   23 1
    20   10   11 ar
    21   10   24 1
    22   11   12 ar
    23   11   16 1
    24   12   13 ar
    25   12   25 1
    26   13   14 1
    27   14   15 1
    28   16   17 1
    29   17   26 1
    30   17   27 1
    31   17   28 1
