@<TRIPOS>MOLECULE
ZINC18847046
   29    31     0     0     0
SMALL
USER_CHARGES

@<TRIPOS>ATOM
      1 C1          0.0000    0.0000    0.0000
      2 C2          0.0000    0.0000    1.5071
      3 C3          0.0000    1.2066    0.6890
      4 C4         -0.0004    2.4549    1.3355
      5 C5         -0.0012    2.4888    2.7296
      6 C6         -0.0014    1.2963    3.4214
      7 N1         -0.0054    0.0825    2.8217
      8 C7          0.0005    3.4761    0.2768
      9 C8          0.0011    4.8703    0.2871
     10 C9          0.0025    5.5655   -0.9008
     11 C10         0.0029    4.8811   -2.1128
     12 C11         0.0024    3.4986   -2.1363
     13 C12         0.0014    2.7823   -0.9440
     14 N2          0.0011    1.4251   -0.6760
     15 H1          0.0018    0.7269   -1.3493
     16 O1          0.0033    5.5761   -3.2804
     17 C13         0.0034    7.0020   -3.1866
     18 H2         -1.0277    0.0049   -0.3633
     19 H3          0.5180    0.8876   -0.3634
     20 H4          0.5096   -0.8924   -0.3633
     21 H5         -0.0011    3.4311    3.2572
     22 H6         -0.0019    1.3081    4.5013
     23 H7          0.0000    5.4041    1.2260
     24 H8          0.0029    6.6454   -0.8924
     25 H9          0.0024    2.9747   -3.0807
     26 H10        -0.8868    7.3309   -2.6505
     27 H11         0.8931    7.3308   -2.6497
     28 H12         0.0038    7.4320   -4.1882
     29 H13        -0.0632    0.9586    3.2342
@<TRIPOS>BOND
     1    1    2 1
     2    1   18 1
     3    1   19 1
     4    1   20 1
     5    2    7 ar
     6    2    3 ar
     7    3   14 1
     8    3    4 ar
     9    4    5 ar
    10    4    8 1
    11    5    6 ar
    12    5   21 1
    13    6    7 ar
    14    6   22 1
    15    7   29 1
    16    8   13 ar
    17    8    9 ar
    18    9   10 ar
    19    9   23 1
    20   10   11 ar
    21   10   24 1
    22   11   12 ar
    23   11   16 1
    24   12   13 ar
    25   12   25 1
    26   13   14 1
    27   14   15 1
    28   16   17 1
    29   17   26 1
    30   17   27 1
    31   17   28 1
