@<TRIPOS>MOLECULE
*****
 4 3 0 0 0
SMALL
GASTEIGER

@<TRIPOS>ATOM
      1 O         -1.75288       -0.51877        1.33236
      2 O         -0.47370       -0.10913        0.77737
      3 H         -2.29018        0.16783        0.89329
      4 H          0.06360       -0.79573        1.21644
@<TRIPOS>BOND
     1     2     4    1
     2     2     1    1
     3     3     1    1
