@<TRIPOS>MOLECULE
*****
 4 3 0 0 0
SMALL
GASTEIGER

@<TRIPOS>ATOM
      1 O          -1.7529   -0.5188    1.3324 O.3     1  UNL1       -0.2528
      2 O          -0.4737   -0.1091    0.7774 O.3     1  UNL1       -0.2528
      3 H          -2.2902    0.1678    0.8933 H       1  UNL1        0.2528
      4 H           0.0636   -0.7957    1.2164 H       1  UNL1        0.2528
@<TRIPOS>BOND
     1     2     4    1
     2     2     1    1
     3     3     1    1
