@<TRIPOS>MOLECULE
benzene
 12 12 0 0 0
SMALL
GASTEIGER

@<TRIPOS>ATOM
      1 C           0.000000  0.000000  0.000000
	  2 C           0.000000  0.000000  1.394784
	  3 C           0.000000  1.208060  2.092194
	  4 C          -0.000064  2.415919  1.394696
	  5 C          -0.000064  2.415919 -0.000089
	  6 C          -0.000064  1.207859 -0.697499
	  7 H          -0.000132  1.207816 -1.784194
	  8 H          -0.000011 -0.941208 -0.543367
	  9 H           0.000062 -0.941124  1.938203
	 10 H           0.000067  1.208103  3.178889
	 11 H          -0.000054  3.357128  1.938063
	 12 H          -0.000088  3.356958 -0.543471
@<TRIPOS>BOND
     1     7     6    1
     2     8     1    1
     3     6     1   ar
     4     6     5   ar
     5     1     2   ar
     6    12     5    1
     7     5     4   ar
     8     2     9    1
     9     2     3   ar
    10     4     3   ar
    11     4    11    1
    12     3    10    1
