@<TRIPOS>MOLECULE
benzene
 12 12 0 0 0
SMALL
GASTEIGER

@<TRIPOS>ATOM
      1 C          -0.2686   -0.4617   -1.4312 C.ar    1  LIG1       -0.0618
      2 C           0.0131    0.0539   -0.1662 C.ar    1  LIG1       -0.0618
      3 C          -0.2400   -0.7125    0.9715 C.ar    1  LIG1       -0.0618
      4 C          -0.7747   -1.9944    0.8440 C.ar    1  LIG1       -0.0618
      5 C          -1.0564   -2.5100   -0.4210 C.ar    1  LIG1       -0.0618
      6 C          -0.8033   -1.7436   -1.5587 C.ar    1  LIG1       -0.0618
      7 H          -1.0227   -2.1453   -2.5443 H       1  LIG1        0.0618
      8 H          -0.0714    0.1354   -2.3176 H       1  LIG1        0.0618
      9 H           0.4297    1.0527   -0.0669 H       1  LIG1        0.0618
     10 H          -0.0206   -0.3108    1.9571 H       1  LIG1        0.0618
     11 H          -0.9719   -2.5915    1.7304 H       1  LIG1        0.0618
     12 H          -1.4730   -3.5087   -0.5203 H       1  LIG1        0.0618
@<TRIPOS>BOND
     1     7     6    1
     2     8     1    1
     3     6     1   ar
     4     6     5   ar
     5     1     2   ar
     6    12     5    1
     7     5     4   ar
     8     2     9    1
     9     2     3   ar
    10     4     3   ar
    11     4    11    1
    12     3    10    1
