@<TRIPOS>MOLECULE
*****
 4 3 0 0 0
SMALL
GASTEIGER

@<TRIPOS>ATOM
      1 O           0.0000    0.0000    0.0000 O.3     1  UNL1       -0.2528
      2 O           0.0000    0.0000    1.4534 O.3     1  UNL1       -0.2528
      3 H           0.0000    0.7137    0.8933 H       1  UNL1        0.2528
      4 H          -0.0849   -0.1461    1.9128 H       1  UNL1        0.2528
@<TRIPOS>BOND
     1     2     4    1
     2     2     1    1
     3     3     1    1
