@<TRIPOS>MOLECULE
ZINC18847046
   29    31     0     0     0
SMALL
USER_CHARGES

@<TRIPOS>ATOM
      1 C1         -0.0184    1.5028    0.0103 C.3       1 <0>        -0.1424
      2 C2          0.0021   -0.0041    0.0020 C.ar      1 <0>         0.1556
      3 C3          0.0057   -0.6865   -1.2084 C.ar      1 <0>         0.1146
      4 C4          0.0254   -2.0919   -1.1857 C.ar      1 <0>         0.0189
      5 C5          0.0408   -2.7431    0.0474 C.ar      1 <0>        -0.0789
      6 C6          0.0361   -1.9836    1.1979 C.ar      1 <0>         0.0838
      7 N1          0.0219   -0.6634    1.1422 N.ar      1 <0>        -0.4304
      8 C7          0.0239   -2.5347   -2.5884 C.ar      1 <0>        -0.1673
      9 C8          0.0375   -3.7874   -3.2002 C.ar      1 <0>         0.0049
     10 C9          0.0309   -3.8808   -4.5734 C.ar      1 <0>        -0.2172
     11 C10         0.0111   -2.7283   -5.3537 C.ar      1 <0>         0.2058
     12 C11        -0.0026   -1.4801   -4.7588 C.ar      1 <0>        -0.1848
     13 C12         0.0034   -1.3698   -3.3723 C.ar      1 <0>         0.2065
     14 N2         -0.0072   -0.2742   -2.5278 N.pl3     1 <0>        -0.5835
     15 H1         -0.0219    0.6508   -2.8196 H         1 <0>         0.4355
     16 O1          0.0057   -2.8305   -6.7086 O.3       1 <0>        -0.3026
     17 C13         0.0210   -4.1488   -7.2598 C.3       1 <0>         0.0197
     18 H2          1.0042    1.8801    0.0026 H         1 <0>         0.1154
     19 H3         -0.5455    1.8639   -0.8728 H         1 <0>         0.1057
     20 H4         -0.5286    1.8543    0.9071 H         1 <0>         0.1048
     21 H5          0.0557   -3.8217    0.1000 H         1 <0>         0.1843
     22 H6          0.0478   -2.4751    2.1595 H         1 <0>         0.2108
     23 H7          0.0536   -4.6834   -2.5974 H         1 <0>         0.1456
     24 H8          0.0415   -4.8513   -5.0470 H         1 <0>         0.1504
     25 H9         -0.0176   -0.5905   -5.3710 H         1 <0>         0.1490
     26 H10         0.9199   -4.6699   -6.9305 H         1 <0>         0.0657
     27 H11        -0.8598   -4.6944   -6.9214 H         1 <0>         0.0657
     28 H12         0.0146   -4.0877   -8.3481 H         1 <0>         0.1130
     29 H13         0.0229   -0.1610    1.9720 H         1 <0>         0.4514
@<TRIPOS>BOND
     1    1    2 1
     2    1   18 1
     3    1   19 1
     4    1   20 1
     5    2    7 ar
     6    2    3 ar
     7    3   14 1
     8    3    4 ar
     9    4    5 ar
    10    4    8 1
    11    5    6 ar
    12    5   21 1
    13    6    7 ar
    14    6   22 1
    15    7   29 1
    16    8   13 ar
    17    8    9 ar
    18    9   10 ar
    19    9   23 1
    20   10   11 ar
    21   10   24 1
    22   11   12 ar
    23   11   16 1
    24   12   13 ar
    25   12   25 1
    26   13   14 1
    27   14   15 1
    28   16   17 1
    29   17   26 1
    30   17   27 1
    31   17   28 1
